[General]
**.timeSlotLength = 1ms  # =timeslot length
sim-time-limit = 100s
**.frameCapacity = 1000 #uniform queue size


## Basic Adversary Types ##

[Config APlusMinor]
network = networks.APlusMinor
**.initialSetSize = ${1,2,5,10,20,50}
**.injectionRate = ${0.8..1.0 step 0.01}
**.adType = "APlusMinor"
**.packetLength = 1250 bytes
**.randomization.meanrate = 10Mbps
**.randomization.stdrate = 0bps
APlusMinor.A.app.result-recording-modes = all
APlusMinor.D.**.result-recording-modes = -
APlusMinor.E.app.result-recording-modes = all
APlusMinor.B.**.result-recording-modes = -
APlusMinor.F.app.result-recording-modes = all
APlusMinor.C.app.result-recording-modes = all
APlusMinor.adversary.result-recording-modes = all
**.gaussianInjTime = "0 0"

[Config BB]
network = networks.BB
**.initialSetSize = 100
**.injectionRate = ${0.8..1.0 step 0.01}
**.adType = "BB"
**.packetLength = 1250 bytes
**.gaussianInjTime = "0 0"

[Config Diaz]
network = networks.Diaz
**.initialSetSize = 100
**.injectionRate = ${0.8..1.0 step 0.01}
**.adType = "Diaz"
**.packetLength = 1250 bytes
**.gaussianInjTime = "0 0"
#Diaz.n**.**.result-recording-modes = -
#Diaz.m1.**.result-recording-modes = -
#Diaz.m4.**.result-recording-modes = -
#Diaz.m5.**.result-recording-modes = -
#Diaz.m6.**.result-recording-modes = -
#Diaz.m2.app.result-recording-modes = all
#Diaz.m2.queue**.result-recording-modes = -
#Diaz.m3.app.result-recording-modes = all
#Diaz.**.queue**.result-recording-modes = scalar
#Diaz.adversary.result-recording-modes = scalar


[Config Lotker]
network = networks.Lotker
**.injectionRate = ${0.6..1.0 step 0.01}
**.adType = "Lotker"
**.initialSetSize = 2965
**.frameCapacity = 10000 #uniform queue size
**.packetLength = 1250 bytes
#**channel.result-recording-modes = -
#**routing.result-recording-modes = -
#**queue**.result-recording-modes = -
#**.app**.result-recording-modes = -
#Lotker.adversary.result-recording-modes = scalar
sim-time-limit = 200s
**.gaussianInjTime = "0 0"

[Config LotkerMod]
network = networks.Lotker
**.injectionRate = ${0.6..1.0 step 0.01}
**.adType = "LotkerMod"
**.initialSetSize = 2965
**.frameCapacity = 10000 #uniform queue size
**.packetLength = 1250 bytes
#**channel.result-recording-modes = -
#**routing.result-recording-modes = -
#**queue**.result-recording-modes = -
#**.app**.result-recording-modes = -
#Lotker.adversary.result-recording-modes = all
sim-time-limit = 200s
**.gaussianInjTime = "0 0"

### new adversary proposals by Berger et al.

[Config CE3]
network = networks.CE3
**.injectionRate = ${0.8..1.0 step 0.01}
**.adType = "CE3"
**.initialSetSize = 100
**.packetLength = 1250 bytes
**.gaussianInjTime = "0 0"

[Config CE71]
network = networks.CE71
**.injectionRate = ${0.8..1.0 step 0.01}
**.adType = "CE71"
**.initialSetSize = 20
**.packetLength = 1250 bytes
**.gaussianInjTime = "0 0"


## imperfect adversary node synchronization

[Config iaBB]
network = networks.BB
**.initialSetSize = 20
**.injectionRate = ${0.8..1.0 step 0.01}
**.adType = "BB"
**.packetLength = 1250 bytes
**.gaussianInjTime = ${"1 0.25","0.953 0.56","0.3 1.155"}
repeat = 20

[Config iaCE3]
network = networks.CE3
**.injectionRate = ${0.8..1.0 step 0.01}
**.adType = "CE3"
**.initialSetSize = 20
**.packetLength = 1250 bytes
**.gaussianInjTime = ${"1 0.25","0.953 0.56","0.3 1.155"}
repeat = 20

[Config iaCE71]
network = networks.CE71
**.injectionRate = ${0.8..1.0 step 0.01}
**.adType = "CE71"
**.initialSetSize = 20
**.packetLength = 1250 bytes
**.gaussianInjTime = ${"1 0.25","0.953 0.56","0.3 1.155"}
repeat = 20



## channel delay randomization with weibull distribution
[Config cdBB]
network = networks.VarBB
**.initialSetSize = 20
**.adType = "BB"
**.packetLength = 1250 bytes
**.gaussianInjTime = "0 0"
**.channel.weibull = ${"1.1295 2.1009","1 0.99","0.57458 0.5422","0.324 0.4107"} #50%,100%,200%,300%
**.injectionRate = 0.92#${0.8..1.0 step 0.01}
repeat = 20
VarBB.m1.**.vector-recording = false
VarBB.m1.**.qlen.result-recording-modes = -
VarBB.n1.**.vector-recording = true
VarBB.n1.**.qlen.result-recording-modes = all
VarBB.adversary.result-recording-modes = all



[Config cdCE3]
network = networks.VarCE3
**.adType = "CE3"
**.initialSetSize = 20
**.packetLength = 1250 bytes
**.gaussianInjTime = "0 0"
**.channel.weibull = ${"1.1295 2.1009","1 0.99","0.57458 0.5422","0.324 0.4107"} #50%,100%,200%,300%
**.injectionRate = 0.92#${0.8..1.0 step 0.01}
repeat = 20
VarCE3.m11.**.vector-recording = false
VarCE3.m11.**.qlen.result-recording-modes = -
VarCE3.m21.**.vector-recording = true
VarCE3.m21.**.qlen.result-recording-modes = all


[Config cdCE71]
network = networks.VarCE71
**.initialSetSize = 20
**.adType = "CE71"
**.packetLength = 1250 bytes
**.gaussianInjTime = "0 0"
**.channel.weibull = ${"1.1295 2.1009","1 0.99","0.57458 0.5422","0.324 0.4107"} #50%,100%,200%,300%
**.injectionRate = 0.92#${0.8..1.0 step 0.01}
repeat = 20







### infinite queue system with randomization 
# => imperfect adversary node synchronization


[Config infiaBB]
sim-time-limit = 50s
seed-set= ${repcounter=0..999}
**.frameCapacity = 100000 #uniform queue size
**.initialSetSize = 100
**.injectionRate = 0.86
**.packetLength = 1250 bytes
**.gaussianInjTime = ${"0 0","1 0.25","0.953 0.56","0.3 1.155"}
network = networks.BB
**.adType = "BB"
BB.**.queue[*].**.result-recording-modes = -scalar
BB.**.routing.**.result-recording-modes = -scalar
BB.adversary.result-recording-modes = vector
BB.adversary.measuredSetSize.result-recording-modes = +vector

[Config infiaCE3]
sim-time-limit = 50s
seed-set= ${repcounter=0..999}
**.frameCapacity = 100000 #uniform queue size
**.initialSetSize = 100
**.injectionRate = 0.88
**.packetLength = 1250 bytes
**.gaussianInjTime = ${"0 0","1 0.25","0.953 0.56","0.3 1.155"}
network = networks.CE3
**.adType = "CE3"
CE3.**.queue[*].**.result-recording-modes = -scalar
CE3.**.routing.**.result-recording-modes = -scalar
CE3.adversary.result-recording-modes = all
CE3.adversary.measuredSetSize.result-recording-modes = all

# not shown in QUESTA plots
[Config infiaCE71]
sim-time-limit = 50s
seed-set= ${repcounter=0..29}
**.frameCapacity = 100000 #uniform queue size
**.initialSetSize = 100
**.injectionRate = 0.89
**.packetLength = 1250 bytes
**.gaussianInjTime = ${"0 0","1 0.25","0.953 0.56","0.3 1.155"}
network = networks.CE71
**.adType = "CE71"
CE71.**.queue[*].**.result-recording-modes = -scalar
CE71.**.routing.**.result-recording-modes = -scalar
CE71.adversary.result-recording-modes = all
CE71.adversary.measuredSetSize.result-recording-modes = all



## channel delay randomization with weibull distribution
[Config infcdBB]
sim-time-limit = 50s
seed-set= ${repcounter=0..499}
**.frameCapacity = 100000 #uniform queue size
**.initialSetSize = 100
**.injectionRate = 0.93
**.packetLength = 1250 bytes
network = networks.VarBB
**.adType = "BB"
**.gaussianInjTime = "0 0"
**.channel.weibull = ${"0 0","1.1295 2.1009","1 0.99","0.57458 0.5422","0.324 0.4107"} #50%,100%,200%,300%
VarBB.**.queue[*].**.result-recording-modes = -scalar
VarBB.**.routing.**.result-recording-modes = -scalar
VarBB.adversary.result-recording-modes = all
VarBB.adversary.measuredSetSize.result-recording-modes = all



[Config infcdCE3]
sim-time-limit = 20s
seed-set= ${repcounter=0..29}
**.frameCapacity = 100000 #uniform queue size
**.initialSetSize = 100
**.injectionRate = 0.92
**.packetLength = 1250 bytes
network = networks.VarCE3
**.adType = "CE3"
**.gaussianInjTime = "0 0"
**.channel.weibull = ${"0 0","1.1295 2.1009","1 0.99","0.57458 0.5422","0.324 0.4107"} #50%,100%,200%,300%
VarCE3.**.queue[*].**.result-recording-modes = -scalar
VarCE3.**.routing.**.result-recording-modes = -scalar
VarCE3.adversary.result-recording-modes = all
VarCE3.adversary.measuredSetSize.result-recording-modes = all


[Config infcdCE71]
sim-time-limit = 50s
seed-set= ${repcounter=0..99}
**.frameCapacity = 100000 #uniform queue size
**.initialSetSize = 100
**.injectionRate = 0.82
**.packetLength = 1250 bytes
network = networks.VarCE71
**.adType = "CE71"
**.gaussianInjTime = "0 0"
**.channel.weibull = ${"0 0","1.1295 2.1009","1 0.99","0.57458 0.5422","0.324 0.4107"} #50%,100%,200%,300%
VarCE71.**.queue[*].**.result-recording-modes = -scalar
VarCE71.**.routing.**.result-recording-modes = -scalar
VarCE71.adversary.result-recording-modes = all
VarCE71.adversary.measuredSetSize.result-recording-modes = all



### daniel test cases increasing std

[Config stdBB]
seed-set= ${repcounter=50..249}
#repeat = 50
network = networks.VarBB
**.initialSetSize = 100
**.adType = "BB"
**.packetLength = 1250 bytes
**.gaussianInjTime = "0 0"
**.injectionRate = 0.98
**.channel.weibull = ${"1.00011337149704 4572.58534958128","1.00211007417785 1.00502908934898","0.578671405866438 0.544740293324356","0.327095549101585 0.412626050812166","0.197757508941376 0.349455545499551","0.12608810301986 0.310855974755823","0.0870191080232175 0.28642727803655","0.0623431450261578 0.268319960049385","0.0450116385513571 0.253259425155269","0.0342297572827815 0.242171231693004","0.0269728749564281 0.233482742477851","0.021342706458466 0.225685039441808","0.0171099025716229 0.218907154859903","0.013961338136219 0.213108730953664","0.0115887224783672 0.208131824103005","0.00966180966764411 0.203546334555448","0.0080405635973004 0.199166586009612","0.00688650398988116 0.195652131178018","0.00601528678776407 0.192707592980327","0.00507354921239371 0.189158171504812","0.0044128666739498 0.186370815682474","0.00393182636376161 0.184138981159748","0.00347275016653662 0.181812506637943","0.0030703751675601 0.179576931419488","0.0027276815110417 0.177494973679125","0.00243923555871909 0.175579142032057","0.00215896897638795 0.173547314145148","0.00193976909950114 0.171812922501746","0.00177062368225508 0.170367839858706","0.00158062800730758 0.168612770172892","0.00143363114761666 0.167138681051021","0.00132494146138943 0.165972293190701","0.001203431314311 0.164571845722516","0.00110222468157498 0.163323293914822","0.00101580106636485 0.162181122789349","0.000918689362158194 0.160804020088262","0.000855569277670529 0.159840513161882","0.00078779325290441 0.158752947509123","0.000719266826071673 0.157564522267734","0.0006773117 0.1567958","0.000631391302840103 0.155906893409765"}


[Config stdCE3]
seed-set= ${repcounter=50..249}
#repeat = 50
network = networks.VarCE3
**.initialSetSize = 100
**.adType = "CE3"
**.packetLength = 1250 bytes
**.gaussianInjTime = "0 0"
**.channel.weibull = ${"1.00011337149704 4572.58534958128","1.00211007417785 1.00502908934898","0.578671405866438 0.544740293324356","0.327095549101585 0.412626050812166","0.197757508941376 0.349455545499551","0.12608810301986 0.310855974755823","0.0870191080232175 0.28642727803655","0.0623431450261578 0.268319960049385","0.0450116385513571 0.253259425155269","0.0342297572827815 0.242171231693004","0.0269728749564281 0.233482742477851","0.021342706458466 0.225685039441808","0.0171099025716229 0.218907154859903","0.013961338136219 0.213108730953664","0.0115887224783672 0.208131824103005","0.00966180966764411 0.203546334555448","0.0080405635973004 0.199166586009612","0.00688650398988116 0.195652131178018","0.00601528678776407 0.192707592980327","0.00507354921239371 0.189158171504812","0.0044128666739498 0.186370815682474","0.00393182636376161 0.184138981159748","0.00347275016653662 0.181812506637943","0.0030703751675601 0.179576931419488","0.0027276815110417 0.177494973679125","0.00243923555871909 0.175579142032057","0.00215896897638795 0.173547314145148","0.00193976909950114 0.171812922501746","0.00177062368225508 0.170367839858706","0.00158062800730758 0.168612770172892","0.00143363114761666 0.167138681051021","0.00132494146138943 0.165972293190701","0.001203431314311 0.164571845722516","0.00110222468157498 0.163323293914822","0.00101580106636485 0.162181122789349","0.000918689362158194 0.160804020088262","0.000855569277670529 0.159840513161882","0.00078779325290441 0.158752947509123","0.000719266826071673 0.157564522267734","0.0006773117 0.1567958","0.000631391302840103 0.155906893409765"}
**.injectionRate = 0.98



[Config stdCE71]
seed-set= ${repcounter=50..249}
#repeat = 50
network = networks.VarCE71
**.initialSetSize = 100
**.adType = "CE71"
**.packetLength = 1250 bytes
**.gaussianInjTime = "0 0"
**.channel.weibull = ${"1.00011337149704 4572.58534958128","1.00211007417785 1.00502908934898","0.578671405866438 0.544740293324356","0.327095549101585 0.412626050812166","0.197757508941376 0.349455545499551","0.12608810301986 0.310855974755823","0.0870191080232175 0.28642727803655","0.0623431450261578 0.268319960049385","0.0450116385513571 0.253259425155269","0.0342297572827815 0.242171231693004","0.0269728749564281 0.233482742477851","0.021342706458466 0.225685039441808","0.0171099025716229 0.218907154859903","0.013961338136219 0.213108730953664","0.0115887224783672 0.208131824103005","0.00966180966764411 0.203546334555448","0.0080405635973004 0.199166586009612","0.00688650398988116 0.195652131178018","0.00601528678776407 0.192707592980327","0.00507354921239371 0.189158171504812","0.0044128666739498 0.186370815682474","0.00393182636376161 0.184138981159748","0.00347275016653662 0.181812506637943","0.0030703751675601 0.179576931419488","0.0027276815110417 0.177494973679125","0.00243923555871909 0.175579142032057","0.00215896897638795 0.173547314145148","0.00193976909950114 0.171812922501746","0.00177062368225508 0.170367839858706","0.00158062800730758 0.168612770172892","0.00143363114761666 0.167138681051021","0.00132494146138943 0.165972293190701","0.001203431314311 0.164571845722516","0.00110222468157498 0.163323293914822","0.00101580106636485 0.162181122789349","0.000918689362158194 0.160804020088262","0.000855569277670529 0.159840513161882","0.00078779325290441 0.158752947509123","0.000719266826071673 0.157564522267734","0.0006773117 0.1567958","0.000631391302840103 0.155906893409765"}
**.injectionRate = 0.98












## 2nd order randomization: randomize both adversary and network channels

[Config drBB]
network = networks.VarBB
**.initialSetSize = 20
**.adType = "BB"
**.packetLength = 1250 bytes
**.gaussianInjTime = ${"1 0.25","0.953 0.56","0.3 1.155"}
**.channel.weibull = ${"1.0954 4.5402","1.1295 2.1009","1 0.99","0.57458 0.5422","0.324 0.4107"} #25%,50%,100%,200%,300%
**.injectionRate = ${0.8..1.0 step 0.01}
**.datarate = 10Mbps
repeat = 20

[Config drCE3]
network = networks.VarCE3
**.initialSetSize = 20
**.adType = "CE3"
**.packetLength = 1250 bytes
**.gaussianInjTime = ${"1 0.25","0.953 0.56","0.3 1.155"}
**.channel.weibull = ${"1.0954 4.5402","1.1295 2.1009","1 0.99","0.57458 0.5422","0.324 0.4107"} #25%,50%,100%,200%,300%
**.injectionRate = ${0.8..1.0 step 0.01}
**.datarate = 10Mbps
repeat = 20

[Config drCE71]
network = networks.VarCE71
**.initialSetSize = 20
**.adType = "CE71"
**.packetLength = 1250 bytes
**.gaussianInjTime = ${"1 0.25","0.953 0.56","0.3 1.155"} #25%,50%,75%
**.channel.weibull = ${"1.0954 4.5402","1.1295 2.1009","1 0.99","0.57458 0.5422","0.324 0.4107"} #25%,50%,100%,200%,300%
**.injectionRate = ${0.8..1.0 step 0.01}
**.datarate = 10Mbps
repeat = 20



## test case

[Config testcase]
network = networks.VarBB
**.initialSetSize = 20
**.adType = "BB"
**.packetLength = 1250 bytes
**.gaussianInjTime = "0 0" #${"1 0", "1 0.25","0.953 0.56","0.3 1.155"}
**.channel.weibull = ${"1.1295 2.1009","1 0.99","0.57458 0.5422","0.324 0.4107"} #50%,100%,200%,300%
**.injectionRate = 1#${0.9,1.0}
**.datarate = 10Mbps
**.result-recording-modes = all
repeat = 1




## Special Adversaries - in development ##

[Config stochCE3]
network = networks.CE3
**.adType = "CE3"
#**.result-recording-modes = all
**.injectionRate = ${0.89..1.0 step 0.01}
#**.initialSetSize = ${1,2,5,8,10,20}
**.initialSetSize = 20
#remember: 1ms=timeslot length, and usually we have 10 Mbps channels with 1250 byte packages
**.timeSlotLength = 1ms  # =timeslot length, and we have 10 Mbps channels
**.packetLength = 1250 bytes
repeat = 50

[Config stochCE71]
network = networks.CE71
**.adType = "CE71"
#**.result-recording-modes = all
**.injectionRate = ${0.76..1.0 step 0.01}
#**.initialSetSize = ${1,2,5,8,10,20}
**.initialSetSize = 20
#remember: 1ms=timeslot length, and usually we have 10 Mbps channels with 1250 byte packages
**.timeSlotLength = 1ms  # =timeslot length, and we have 10 Mbps channels
**.packetLength = 1250 bytes
repeat = 50


## unpublished adversaries

[Config CE75]
network = networks.CE75
**.injectionRate = ${0.8..1.0 step 0.01}
**.adType = "CE75"
#record-eventlog = true

[Config CF3]
network = networks.CE3
**.injectionRate = ${0.8..1.0 step 0.01}
**.adType = "CF3"

[Config CE7]
network = networks.CE7
**.injectionRate = ${0.8..1.0 step 0.01}
**.adType = "CE7"

[Config CF7]
network = networks.CE7
**.injectionRate = ${0.8..1.0 step 0.01}
**.adType = "CF7"











## OLD-Style Adversaries ##

#[Config CE3half]
#network = networks.CE3half
#**.injectionRate = ${0.8..1.0 step 0.01}

#[Config CE7half]
#network = networks.CE7half
#**.injectionRate = ${0.8..1.0 step 0.01}

#[Config BBhalf]
#network = networks.BB
#**.injectionRate = 1.0
#**.adType = "BBhalf"








